Measured thermophysical data. Advanced Synthetic ThermoML Dataset
Source: Journal of Synthetic Thermodynamics, 2025, 10.0000/demo.deep.doi
Compound 1: Fictitium, Ft1
Compound 2: Imaginarene, Im2

System: Fictitium + Imaginarene
Property: Density (Liquid); method: SyntheticMethod
Property: Viscosity (Liquid); method: Calculated
Temperature	Pressure	Density	uncertainty	Viscosity	uncertainty
298.15	101325	850.0	2.0	0.0015	0.0001
310.0	102000	820.0	1.5	0.0017	0.00015
